@<TRIPOS>MOLECULE
C70
   70   105     1     0     0
SMALL
NO_CHARGES


@<TRIPOS>ATOM
      1 C          -2.5160   -2.9400    1.2120 ca         1 C70      0.000000
      2 C1         -3.3200   -1.8190    1.4390 ca         1 C70      0.000000
      3 C2         -2.8630   -1.1870    2.6000 ca         1 C70      0.000000
      4 C3         -1.7760   -1.9170    3.0900 ca         1 C70      0.000000
      5 C4         -1.5610   -3.0010    2.2320 ca         1 C70      0.000000
      6 C5         -3.7670   -1.0520    0.3590 ca         1 C70      0.000000
      7 C6         -3.7590    0.3430    0.4410 ca         1 C70      0.000000
      8 C7         -3.3040    0.9710    1.5930 ca         1 C70      0.000000
      9 C8         -2.8540    0.2100    2.6750 ca         1 C70      0.000000
     10 C9         -1.7620    0.8730    3.2410 ca         1 C70      0.000000
     11 C10        -0.6820    0.1480    3.7290 ca         1 C70      0.000000
     12 C11        -0.6840   -1.2480    3.6540 ca         1 C70      0.000000
     13 C12         0.6180   -1.6630    3.3620 ca         1 C70      0.000000
     14 C13         0.8310   -2.7390    2.5100 ca         1 C70      0.000000
     15 C14        -0.2550   -3.4110    1.9420 ca         1 C70      0.000000
     16 C15         0.0930   -3.7610    0.6340 ca         1 C70      0.000000
     17 C16        -0.8560   -3.7000   -0.3790 ca         1 C70      0.000000
     18 C17        -2.1610   -3.2900   -0.0950 ca         1 C70      0.000000
     19 C18        -2.6130   -2.5210   -1.1710 ca         1 C70      0.000000
     20 C19        -3.4120   -1.4070   -0.9460 ca         1 C70      0.000000
     21 C20        -0.5020   -3.1920   -1.6300 ca         1 C70      0.000000
     22 C21        -1.5930   -2.4590   -2.1210 ca         1 C70      0.000000
     23 C22        -3.4030    0.8510   -0.8100 ca         1 C70      0.000000
     24 C23        -3.1880   -0.2360   -1.6710 ca         1 C70      0.000000
     25 C24         1.3920   -3.3130    0.3940 ca         1 C70      0.000000
     26 C25         1.8510   -2.6790    1.5590 ca         1 C70      0.000000
     27 C26         1.4240   -0.5290    3.2600 ca         1 C70      0.000000
     28 C27         0.6170    0.5950    3.4880 ca         1 C70      0.000000
     29 C28        -1.5390    2.0440    2.5160 ca         1 C70      0.000000
     30 C29        -2.4960    2.1040    1.4920 ca         1 C70      0.000000
     31 C30        -2.1770    2.6680    0.2460 ca         1 C70      0.000000
     32 C31        -2.6420    2.0260   -0.9350 ca         1 C70      0.000000
     33 C32        -2.2080   -0.1710   -2.6740 ca         1 C70      0.000000
     34 C33        -1.3890   -1.3120   -2.9060 ca         1 C70      0.000000
     35 C34         0.8160   -2.7930   -1.9120 ca         1 C70      0.000000
     36 C35         1.7870   -2.8550   -0.8740 ca         1 C70      0.000000
     37 C36         2.4960   -0.4700    2.3530 ca         1 C70      0.000000
     38 C37         2.7140   -1.5730    1.4800 ca         1 C70      0.000000
     39 C38        -0.2420    2.5460    2.3140 ca         1 C70      0.000000
     40 C39         0.8640    1.8030    2.8130 ca         1 C70      0.000000
     41 C40        -1.0050    3.4410    0.1780 ca         1 C70      0.000000
     42 C41        -0.0470    3.3800    1.2000 ca         1 C70      0.000000
     43 C42        -1.6970    1.1010   -2.9850 ca         1 C70      0.000000
     44 C43        -1.9130    2.1870   -2.1250 ca         1 C70      0.000000
     45 C44        -0.1010   -1.1230   -3.4360 ca         1 C70      0.000000
     46 C45         0.9890   -1.8560   -2.9440 ca         1 C70      0.000000
     47 C46         2.1090    1.9320    2.1730 ca         1 C70      0.000000
     48 C47         2.9150    0.8080    1.9450 ca         1 C70      0.000000
     49 C48         3.3410   -1.3420    0.2440 ca         1 C70      0.000000
     50 C49         2.8830   -1.9760   -0.9200 ca         1 C70      0.000000
     51 C50         3.0650   -1.0960   -1.9880 ca         1 C70      0.000000
     52 C51         2.1160   -1.0360   -3.0010 ca         1 C70      0.000000
     53 C52         0.3600    0.1440   -3.7930 ca         1 C70      0.000000
     54 C53        -0.4390    1.2570   -3.5670 ca         1 C70      0.000000
     55 C54        -0.7860    3.0080   -2.1820 ca         1 C70      0.000000
     56 C55        -0.3320    3.6360   -1.0280 ca         1 C70      0.000000
     57 C56         1.2100    3.5380    0.6200 ca         1 C70      0.000000
     58 C57         2.2910    2.8130    1.1070 ca         1 C70      0.000000
     59 C58         3.8030   -0.0750   -0.1120 ca         1 C70      0.000000
     60 C59         3.5910    1.0010    0.7400 ca         1 C70      0.000000
     61 C60         1.0380    3.6990   -0.7570 ca         1 C70      0.000000
     62 C61         3.2090    2.2420    0.2210 ca         1 C70      0.000000
     63 C62         3.6370    0.0790   -1.4910 ca         1 C70      0.000000
     64 C63         1.7310    0.2000   -3.5280 ca         1 C70      0.000000
     65 C64         0.1260    2.4370   -3.0740 ca         1 C70      0.000000
     66 C65         2.3020    1.3780   -3.0360 ca         1 C70      0.000000
     67 C66         1.4970    2.5000   -2.8100 ca         1 C70      0.000000
     68 C67         1.9550    3.1320   -1.6490 ca         1 C70      0.000000
     69 C68         3.2570    1.3170   -2.0160 ca         1 C70      0.000000
     70 C69         3.0420    2.4020   -1.1590 ca         1 C70      0.000000
@<TRIPOS>BOND
    1     1     2 1
    2     1     5 1
    3     1    18 1
    4     2     3 1
    5     2     6 1
    6     3     4 1
    7     3     9 1
    8     4     5 1
    9     4    12 1
   10     5    15 1
   11     6     7 1
   12     6    20 1
   13     7     8 1
   14     7    23 1
   15     8     9 1
   16     8    30 1
   17     9    10 1
   18    10    11 1
   19    10    29 1
   20    11    12 1
   21    11    28 1
   22    12    13 1
   23    13    14 1
   24    13    27 1
   25    14    15 1
   26    14    26 1
   27    15    16 1
   28    16    17 1
   29    16    25 1
   30    17    18 1
   31    17    21 1
   32    18    19 1
   33    19    20 1
   34    19    22 1
   35    20    24 1
   36    21    22 1
   37    21    35 1
   38    22    34 1
   39    23    24 1
   40    23    32 1
   41    24    33 1
   42    25    26 1
   43    25    36 1
   44    26    38 1
   45    27    28 1
   46    27    37 1
   47    28    40 1
   48    29    30 1
   49    29    39 1
   50    30    31 1
   51    31    32 1
   52    31    41 1
   53    32    44 1
   54    33    34 1
   55    33    43 1
   56    34    45 1
   57    35    36 1
   58    35    46 1
   59    36    50 1
   60    37    38 1
   61    37    48 1
   62    38    49 1
   63    39    40 1
   64    39    42 1
   65    40    47 1
   66    41    42 1
   67    41    56 1
   68    42    57 1
   69    43    44 1
   70    43    54 1
   71    44    55 1
   72    45    46 1
   73    45    53 1
   74    46    52 1
   75    47    48 1
   76    47    58 1
   77    48    60 1
   78    49    50 1
   79    49    59 1
   80    50    51 1
   81    51    52 1
   82    51    63 1
   83    52    64 1
   84    53    54 1
   85    53    64 1
   86    54    65 1
   87    55    56 1
   88    55    65 1
   89    56    61 1
   90    57    58 1
   91    57    61 1
   92    58    62 1
   93    59    60 1
   94    59    63 1
   95    60    62 1
   96    61    68 1
   97    62    70 1
   98    63    69 1
   99    64    66 1
  100    65    67 1
  101    66    67 1
  102    66    69 1
  103    67    68 1
  104    68    70 1
  105    69    70 1
@<TRIPOS>SUBSTRUCTURE
      1 C70               1 ****               0 ****  **** 
