@<TRIPOS>MOLECULE
DBP
  100   114     1     0     0
SMALL
NO_CHARGES


@<TRIPOS>ATOM
      1 C           6.0590    5.7320   -0.0650 ca         1 DBP      0.000000
      2 C1          6.2570    5.0310    1.1270 ca         1 DBP      0.000000
      3 C2          6.3020    3.6360    1.1190 ca         1 DBP      0.000000
      4 C3          6.1490    2.9280   -0.0800 ca         1 DBP      0.000000
      5 C4          6.1630    1.4370   -0.0830 ca         1 DBP      0.000000
      6 C5          7.4070    0.7160   -0.0940 ca         1 DBP      0.000000
      7 C6          8.6550    1.3990   -0.1130 ca         1 DBP      0.000000
      8 C7          9.8460    0.7080   -0.1290 ca         1 DBP      0.000000
      9 C8          9.8460   -0.7060   -0.1290 ca         1 DBP      0.000000
     10 C9          8.6550   -1.3970   -0.1130 ca         1 DBP      0.000000
     11 C10         7.4080   -0.7150   -0.0930 ca         1 DBP      0.000000
     12 C11         6.1630   -1.4350   -0.0830 ca         1 DBP      0.000000
     13 C12         6.1490   -2.9270   -0.0800 ca         1 DBP      0.000000
     14 C13         5.9570   -3.6370   -1.2730 ca         1 DBP      0.000000
     15 C14         5.9100   -5.0320   -1.2650 ca         1 DBP      0.000000
     16 C15         6.0590   -5.7310   -0.0640 ca         1 DBP      0.000000
     17 C16         6.2570   -5.0300    1.1280 ca         1 DBP      0.000000
     18 C17         6.3030   -3.6350    1.1200 ca         1 DBP      0.000000
     19 C18         4.9900   -0.7230   -0.0750 ca         1 DBP      0.000000
     20 C19         3.5820   -1.1760   -0.0520 ca         1 DBP      0.000000
     21 C20         2.9370   -2.3960   -0.0290 ca         1 DBP      0.000000
     22 C21         1.5200   -2.4230   -0.0070 ca         1 DBP      0.000000
     23 C22         0.7360   -1.2720   -0.0050 ca         1 DBP      0.000000
     24 C23        -0.7360   -1.2730    0.0150 ca         1 DBP      0.000000
     25 C24        -1.5190   -2.4240    0.0170 ca         1 DBP      0.000000
     26 C25        -2.9370   -2.3960    0.0380 ca         1 DBP      0.000000
     27 C26        -3.5820   -1.1770    0.0620 ca         1 DBP      0.000000
     28 C27        -4.9900   -0.7240    0.0840 ca         1 DBP      0.000000
     29 C28        -6.1630   -1.4360    0.0910 ca         1 DBP      0.000000
     30 C29        -6.1490   -2.9280    0.0880 ca         1 DBP      0.000000
     31 C30        -5.9570   -3.6380    1.2810 ca         1 DBP      0.000000
     32 C31        -5.9100   -5.0330    1.2730 ca         1 DBP      0.000000
     33 C32        -6.0590   -5.7320    0.0730 ca         1 DBP      0.000000
     34 C33        -6.2570   -5.0310   -1.1190 ca         1 DBP      0.000000
     35 C34        -6.3020   -3.6360   -1.1120 ca         1 DBP      0.000000
     36 C35        -7.4080   -0.7160    0.1010 ca         1 DBP      0.000000
     37 C36        -8.6550   -1.3980    0.1200 ca         1 DBP      0.000000
     38 C37        -9.8460   -0.7080    0.1350 ca         1 DBP      0.000000
     39 C38        -9.8460    0.7060    0.1350 ca         1 DBP      0.000000
     40 C39        -8.6550    1.3970    0.1200 ca         1 DBP      0.000000
     41 C40        -7.4080    0.7150    0.1010 ca         1 DBP      0.000000
     42 C41        -6.1630    1.4350    0.0910 ca         1 DBP      0.000000
     43 C42        -6.1490    2.9270    0.0880 ca         1 DBP      0.000000
     44 C43        -5.9580    3.6370    1.2820 ca         1 DBP      0.000000
     45 C44        -5.9110    5.0320    1.2740 ca         1 DBP      0.000000
     46 C45        -6.0600    5.7310    0.0730 ca         1 DBP      0.000000
     47 C46        -6.2570    5.0300   -1.1190 ca         1 DBP      0.000000
     48 C47        -6.3030    3.6350   -1.1110 ca         1 DBP      0.000000
     49 C48        -4.9900    0.7230    0.0840 ca         1 DBP      0.000000
     50 C49        -3.5820    1.1760    0.0620 ca         1 DBP      0.000000
     51 C50        -2.9370    2.3960    0.0380 ca         1 DBP      0.000000
     52 C51        -1.5200    2.4230    0.0170 ca         1 DBP      0.000000
     53 C52        -0.7360    1.2720    0.0150 ca         1 DBP      0.000000
     54 C53         0.7360    1.2730   -0.0050 ca         1 DBP      0.000000
     55 C54         1.5190    2.4240   -0.0080 ca         1 DBP      0.000000
     56 C55         2.9370    2.3960   -0.0290 ca         1 DBP      0.000000
     57 C56         3.5820    1.1770   -0.0530 ca         1 DBP      0.000000
     58 C57         4.9900    0.7240   -0.0750 ca         1 DBP      0.000000
     59 C58         2.7890    0.0000   -0.0430 ca         1 DBP      0.000000
     60 C59         1.3950    0.0000   -0.0190 ca         1 DBP      0.000000
     61 C60        -1.3950   -0.0000    0.0290 ca         1 DBP      0.000000
     62 C61        -2.7890   -0.0000    0.0520 ca         1 DBP      0.000000
     63 C62         5.9570    3.6380   -1.2740 ca         1 DBP      0.000000
     64 C63         5.9100    5.0330   -1.2660 ca         1 DBP      0.000000
     65 H           6.0240    6.8160   -0.0590 ha         1 DBP      0.000000
     66 H1          6.3730    5.5680    2.0620 ha         1 DBP      0.000000
     67 H2          6.4510    3.0890    2.0450 ha         1 DBP      0.000000
     68 H3          8.6580    2.4820   -0.1170 ha         1 DBP      0.000000
     69 H4         10.7880    1.2440   -0.1450 ha         1 DBP      0.000000
     70 H5         10.7880   -1.2420   -0.1440 ha         1 DBP      0.000000
     71 H6          8.6590   -2.4810   -0.1160 ha         1 DBP      0.000000
     72 H7          5.8360   -3.0920   -2.2040 ha         1 DBP      0.000000
     73 H8          5.7580   -5.5710   -2.1940 ha         1 DBP      0.000000
     74 H9          6.0240   -6.8150   -0.0580 ha         1 DBP      0.000000
     75 H10         6.3740   -5.5660    2.0630 ha         1 DBP      0.000000
     76 H11         6.4520   -3.0880    2.0450 ha         1 DBP      0.000000
     77 H12         3.4790   -3.3340   -0.0290 ha         1 DBP      0.000000
     78 H13         1.0470   -3.3980    0.0080 ha         1 DBP      0.000000
     79 H14        -1.0460   -3.3980    0.0010 ha         1 DBP      0.000000
     80 H15        -3.4780   -3.3350    0.0380 ha         1 DBP      0.000000
     81 H16        -5.8360   -3.0930    2.2120 ha         1 DBP      0.000000
     82 H17        -5.7580   -5.5720    2.2020 ha         1 DBP      0.000000
     83 H18        -6.0240   -6.8160    0.0670 ha         1 DBP      0.000000
     84 H19        -6.3730   -5.5680   -2.0550 ha         1 DBP      0.000000
     85 H20        -6.4510   -3.0890   -2.0370 ha         1 DBP      0.000000
     86 H21        -8.6580   -2.4820    0.1230 ha         1 DBP      0.000000
     87 H22       -10.7880   -1.2440    0.1500 ha         1 DBP      0.000000
     88 H23       -10.7880    1.2420    0.1500 ha         1 DBP      0.000000
     89 H24        -8.6590    2.4810    0.1230 ha         1 DBP      0.000000
     90 H25        -5.8360    3.0920    2.2120 ha         1 DBP      0.000000
     91 H26        -5.7590    5.5710    2.2020 ha         1 DBP      0.000000
     92 H27        -6.0250    6.8150    0.0670 ha         1 DBP      0.000000
     93 H28        -6.3740    5.5670   -2.0540 ha         1 DBP      0.000000
     94 H29        -6.4510    3.0880   -2.0370 ha         1 DBP      0.000000
     95 H30        -3.4790    3.3340    0.0380 ha         1 DBP      0.000000
     96 H31        -1.0470    3.3980    0.0010 ha         1 DBP      0.000000
     97 H32         1.0460    3.3980    0.0080 ha         1 DBP      0.000000
     98 H33         3.4780    3.3350   -0.0290 ha         1 DBP      0.000000
     99 H34         5.8350    3.0930   -2.2040 ha         1 DBP      0.000000
    100 H35         5.7580    5.5720   -2.1940 ha         1 DBP      0.000000
@<TRIPOS>BOND
    1     1     2 1
    2     1    64 1
    3     2     3 1
    4     3     4 1
    5     4     5 1
    6     4    63 1
    7     5     6 1
    8     5    58 1
    9     6     7 1
   10     6    11 1
   11     7     8 1
   12     8     9 1
   13     9    10 1
   14    10    11 1
   15    11    12 1
   16    12    13 1
   17    12    19 1
   18    13    14 1
   19    13    18 1
   20    14    15 1
   21    15    16 1
   22    16    17 1
   23    17    18 1
   24    19    20 1
   25    19    58 1
   26    20    21 1
   27    20    59 1
   28    21    22 1
   29    22    23 1
   30    23    24 1
   31    23    60 1
   32    24    25 1
   33    24    61 1
   34    25    26 1
   35    26    27 1
   36    27    28 1
   37    27    62 1
   38    28    29 1
   39    28    49 1
   40    29    30 1
   41    29    36 1
   42    30    31 1
   43    30    35 1
   44    31    32 1
   45    32    33 1
   46    33    34 1
   47    34    35 1
   48    36    37 1
   49    36    41 1
   50    37    38 1
   51    38    39 1
   52    39    40 1
   53    40    41 1
   54    41    42 1
   55    42    43 1
   56    42    49 1
   57    43    44 1
   58    43    48 1
   59    44    45 1
   60    45    46 1
   61    46    47 1
   62    47    48 1
   63    49    50 1
   64    50    51 1
   65    50    62 1
   66    51    52 1
   67    52    53 1
   68    53    54 1
   69    53    61 1
   70    54    55 1
   71    54    60 1
   72    55    56 1
   73    56    57 1
   74    57    58 1
   75    57    59 1
   76    59    60 1
   77    61    62 1
   78    63    64 1
   79     1    65 1
   80     2    66 1
   81     3    67 1
   82     7    68 1
   83     8    69 1
   84     9    70 1
   85    10    71 1
   86    14    72 1
   87    15    73 1
   88    16    74 1
   89    17    75 1
   90    18    76 1
   91    21    77 1
   92    22    78 1
   93    25    79 1
   94    26    80 1
   95    31    81 1
   96    32    82 1
   97    33    83 1
   98    34    84 1
   99    35    85 1
  100    37    86 1
  101    38    87 1
  102    39    88 1
  103    40    89 1
  104    44    90 1
  105    45    91 1
  106    46    92 1
  107    47    93 1
  108    48    94 1
  109    51    95 1
  110    52    96 1
  111    55    97 1
  112    56    98 1
  113    63    99 1
  114    64   100 1
@<TRIPOS>SUBSTRUCTURE
      1 DBP               1 ****               0 ****  **** 
